Circuit: * C:\Users\user\Documents\LTspiceXVII\file\Montecarlo\monte_SiC.asc

Direct Newton iteration for .op point succeeded.
.step tol1=0
.step tol1=0.1
.step tol1=0.2
.step tol1=0.3
.step tol1=0.4
.step tol1=0.5
.step tol1=0.6
.step tol1=0.7
.step tol1=0.8
.step tol1=0.9
.step tol1=1
.step tol1=1.1
.step tol1=1.2
.step tol1=1.3
.step tol1=1.4
.step tol1=1.5
.step tol1=1.6
.step tol1=1.7
.step tol1=1.8
.step tol1=1.9
.step tol1=2


Measurement: imax
  step	MAX(-i(v1))	FROM	TO
     1	41.2502	0	5e-006
     2	41.2493	0	5e-006
     3	41.2486	0	5e-006
     4	41.2476	0	5e-006
     5	41.2468	0	5e-006
     6	41.2458	0	5e-006
     7	41.2449	0	5e-006
     8	41.2439	0	5e-006
     9	41.2428	0	5e-006
    10	41.2417	0	5e-006
    11	41.2406	0	5e-006
    12	41.2395	0	5e-006
    13	41.2382	0	5e-006
    14	41.2369	0	5e-006
    15	41.2355	0	5e-006
    16	41.2341	0	5e-006
    17	41.2326	0	5e-006
    18	41.231	0	5e-006
    19	41.2293	0	5e-006
    20	41.2275	0	5e-006
    21	41.2256	0	5e-006

Measurement: tr1
  step	tr1	FROM	TO
     1	3.31263e-008	1.0209e-006	1.05403e-006
     2	3.42709e-008	1.02171e-006	1.05598e-006
     3	3.53394e-008	1.02265e-006	1.05799e-006
     4	3.62673e-008	1.02399e-006	1.06026e-006
     5	3.68895e-008	1.02535e-006	1.06224e-006
     6	3.81193e-008	1.0262e-006	1.06432e-006
     7	3.94385e-008	1.02724e-006	1.06668e-006
     8	4.07537e-008	1.02837e-006	1.06912e-006
     9	4.18867e-008	1.03e-006	1.07188e-006
    10	4.32406e-008	1.03108e-006	1.07432e-006
    11	4.47064e-008	1.03221e-006	1.07692e-006
    12	4.65368e-008	1.03345e-006	1.07998e-006
    13	4.79763e-008	1.0351e-006	1.08308e-006
    14	4.97644e-008	1.03641e-006	1.08617e-006
    15	5.17147e-008	1.03763e-006	1.08934e-006
    16	5.3952e-008	1.03906e-006	1.09301e-006
    17	5.60712e-008	1.04079e-006	1.09686e-006
    18	5.84477e-008	1.04216e-006	1.10061e-006
    19	6.109e-008	1.04365e-006	1.10474e-006
    20	6.36808e-008	1.04546e-006	1.10914e-006
    21	6.67159e-008	1.04706e-006	1.11377e-006

Measurement: tr2
  step	tr2	FROM	TO
     1	6.56657e-008	3.15675e-006	3.22241e-006
     2	6.36263e-008	3.15287e-006	3.2165e-006
     3	6.16135e-008	3.14919e-006	3.21081e-006
     4	6.00265e-008	3.14546e-006	3.20548e-006
     5	5.82838e-008	3.14203e-006	3.20032e-006
     6	5.69233e-008	3.13856e-006	3.19548e-006
     7	5.5602e-008	3.13531e-006	3.19091e-006
     8	5.43092e-008	3.13205e-006	3.18636e-006
     9	5.31522e-008	3.12888e-006	3.18204e-006
    10	5.21636e-008	3.12582e-006	3.17799e-006
    11	5.1053e-008	3.12287e-006	3.17392e-006
    12	5.01618e-008	3.1199e-006	3.17006e-006
    13	4.93229e-008	3.11709e-006	3.16641e-006
    14	4.87047e-008	3.11407e-006	3.16278e-006
    15	4.80741e-008	3.11141e-006	3.15949e-006
    16	4.73895e-008	3.10873e-006	3.15612e-006
    17	4.6797e-008	3.10604e-006	3.15283e-006
    18	4.62872e-008	3.10342e-006	3.14971e-006
    19	4.55423e-008	3.10082e-006	3.14637e-006
    20	4.52242e-008	3.09836e-006	3.14359e-006
    21	4.48672e-008	3.09581e-006	3.14068e-006

Measurement: vth
  step	v(n004)	at
     1	3.37099	1.01179e-006
     2	3.37549	1.01185e-006
     3	3.38198	1.01194e-006
     4	3.40122	1.0122e-006
     5	3.50516	1.01362e-006
     6	3.72765	1.01666e-006
     7	3.73328	1.01675e-006
     8	3.74218	1.01688e-006
     9	3.7833	1.01749e-006
    10	3.94434	1.01989e-006
    11	4.05777	1.02159e-006
    12	4.06521	1.02171e-006
    13	4.09224	1.02215e-006
    14	4.21122	1.0241e-006
    15	4.35585	1.02646e-006
    16	4.3642	1.02661e-006
    17	4.40174	1.02728e-006
    18	4.53445	1.02966e-006
    19	4.6304	1.03138e-006
    20	4.64454	1.03166e-006
    21	4.71099	1.03296e-006


Date: Mon Mar 28 20:20:29 2022
Total elapsed time: 0.289 seconds.

tnom = 27
temp = 27
method = modified trap
totiter = 2339
traniter = 2319
tranpoints = 1079
accept = 1070
rejected = 9
matrix size = 11
fillins = 0
solver = Normal
Matrix Compiler1: 674 bytes object code size  0.1/0.1/[0.0]
Matrix Compiler2: off  [0.1]/0.1/0.1

