Circuit: * C:\Users\user\Documents\LTspiceXVII\file\Montecarlo\monte_SiC.asc

Direct Newton iteration for .op point succeeded.
.step tol1=0 freq=200000
.step tol1=0.05 freq=200000
.step tol1=0.1 freq=200000
.step tol1=0.15 freq=200000
.step tol1=0.2 freq=200000
.step tol1=0.25 freq=200000
.step tol1=0.3 freq=200000
.step tol1=0.35 freq=200000
.step tol1=0.4 freq=200000
.step tol1=0.45 freq=200000
.step tol1=0.5 freq=200000
.step tol1=0.55 freq=200000
.step tol1=0.6 freq=200000
.step tol1=0.65 freq=200000
.step tol1=0.7 freq=200000
.step tol1=0.75 freq=200000
.step tol1=0.8 freq=200000
.step tol1=0.85 freq=200000
.step tol1=0.9 freq=200000
.step tol1=0.95 freq=200000
.step tol1=1 freq=200000
.step tol1=1.05 freq=200000
.step tol1=1.1 freq=200000
.step tol1=1.15 freq=200000
.step tol1=1.2 freq=200000
.step tol1=1.25 freq=200000
.step tol1=1.3 freq=200000
.step tol1=1.35 freq=200000
.step tol1=1.4 freq=200000
.step tol1=1.45 freq=200000
.step tol1=1.5 freq=200000
.step tol1=1.55 freq=200000
.step tol1=1.6 freq=200000
.step tol1=1.65 freq=200000
.step tol1=1.7 freq=200000
.step tol1=1.75 freq=200000
.step tol1=1.8 freq=200000
.step tol1=1.85 freq=200000
.step tol1=1.9 freq=200000
.step tol1=1.95 freq=200000
.step tol1=2 freq=200000
.step tol1=2.05 freq=200000
.step tol1=2.1 freq=200000
.step tol1=2.15 freq=200000
.step tol1=2.2 freq=200000
.step tol1=2.25 freq=200000
.step tol1=2.3 freq=200000
.step tol1=2.35 freq=200000
.step tol1=2.4 freq=200000
.step tol1=2.45 freq=200000
.step tol1=2.5 freq=200000
.step tol1=2.55 freq=200000
.step tol1=2.6 freq=200000
.step tol1=2.65 freq=200000
.step tol1=2.7 freq=200000
.step tol1=2.75 freq=200000
.step tol1=2.8 freq=200000
.step tol1=2.85 freq=200000
.step tol1=2.9 freq=200000
.step tol1=2.95 freq=200000
.step tol1=3 freq=200000
.step tol1=0 freq=150000
.step tol1=0.05 freq=150000
.step tol1=0.1 freq=150000
.step tol1=0.15 freq=150000
.step tol1=0.2 freq=150000
.step tol1=0.25 freq=150000
.step tol1=0.3 freq=150000
.step tol1=0.35 freq=150000
.step tol1=0.4 freq=150000
.step tol1=0.45 freq=150000
.step tol1=0.5 freq=150000
.step tol1=0.55 freq=150000
.step tol1=0.6 freq=150000
.step tol1=0.65 freq=150000
.step tol1=0.7 freq=150000
.step tol1=0.75 freq=150000
.step tol1=0.8 freq=150000
.step tol1=0.85 freq=150000
.step tol1=0.9 freq=150000
.step tol1=0.95 freq=150000
.step tol1=1 freq=150000
.step tol1=1.05 freq=150000
.step tol1=1.1 freq=150000
.step tol1=1.15 freq=150000
.step tol1=1.2 freq=150000
.step tol1=1.25 freq=150000
.step tol1=1.3 freq=150000
.step tol1=1.35 freq=150000
.step tol1=1.4 freq=150000
.step tol1=1.45 freq=150000
.step tol1=1.5 freq=150000
.step tol1=1.55 freq=150000
.step tol1=1.6 freq=150000
.step tol1=1.65 freq=150000
.step tol1=1.7 freq=150000
.step tol1=1.75 freq=150000
.step tol1=1.8 freq=150000
.step tol1=1.85 freq=150000
.step tol1=1.9 freq=150000
.step tol1=1.95 freq=150000
.step tol1=2 freq=150000
.step tol1=2.05 freq=150000
.step tol1=2.1 freq=150000
.step tol1=2.15 freq=150000
.step tol1=2.2 freq=150000
.step tol1=2.25 freq=150000
.step tol1=2.3 freq=150000
.step tol1=2.35 freq=150000
.step tol1=2.4 freq=150000
.step tol1=2.45 freq=150000
.step tol1=2.5 freq=150000
.step tol1=2.55 freq=150000
.step tol1=2.6 freq=150000
.step tol1=2.65 freq=150000
.step tol1=2.7 freq=150000
.step tol1=2.75 freq=150000
.step tol1=2.8 freq=150000
.step tol1=2.85 freq=150000
.step tol1=2.9 freq=150000
.step tol1=2.95 freq=150000
.step tol1=3 freq=150000
.step tol1=0 freq=100000
.step tol1=0.05 freq=100000
.step tol1=0.1 freq=100000
.step tol1=0.15 freq=100000
.step tol1=0.2 freq=100000
.step tol1=0.25 freq=100000
.step tol1=0.3 freq=100000
.step tol1=0.35 freq=100000
.step tol1=0.4 freq=100000
.step tol1=0.45 freq=100000
.step tol1=0.5 freq=100000
.step tol1=0.55 freq=100000
.step tol1=0.6 freq=100000
.step tol1=0.65 freq=100000
.step tol1=0.7 freq=100000
.step tol1=0.75 freq=100000
.step tol1=0.8 freq=100000
.step tol1=0.85 freq=100000
.step tol1=0.9 freq=100000
.step tol1=0.95 freq=100000
.step tol1=1 freq=100000
.step tol1=1.05 freq=100000
.step tol1=1.1 freq=100000
.step tol1=1.15 freq=100000
.step tol1=1.2 freq=100000
.step tol1=1.25 freq=100000
.step tol1=1.3 freq=100000
.step tol1=1.35 freq=100000
.step tol1=1.4 freq=100000
.step tol1=1.45 freq=100000
.step tol1=1.5 freq=100000
.step tol1=1.55 freq=100000
.step tol1=1.6 freq=100000
.step tol1=1.65 freq=100000
.step tol1=1.7 freq=100000
.step tol1=1.75 freq=100000
.step tol1=1.8 freq=100000
.step tol1=1.85 freq=100000
.step tol1=1.9 freq=100000
.step tol1=1.95 freq=100000
.step tol1=2 freq=100000
.step tol1=2.05 freq=100000
.step tol1=2.1 freq=100000
.step tol1=2.15 freq=100000
.step tol1=2.2 freq=100000
.step tol1=2.25 freq=100000
.step tol1=2.3 freq=100000
.step tol1=2.35 freq=100000
.step tol1=2.4 freq=100000
.step tol1=2.45 freq=100000
.step tol1=2.5 freq=100000
.step tol1=2.55 freq=100000
.step tol1=2.6 freq=100000
.step tol1=2.65 freq=100000
.step tol1=2.7 freq=100000
.step tol1=2.75 freq=100000
.step tol1=2.8 freq=100000
.step tol1=2.85 freq=100000
.step tol1=2.9 freq=100000
.step tol1=2.95 freq=100000
.step tol1=3 freq=100000
.step tol1=0 freq=80000
.step tol1=0.05 freq=80000
.step tol1=0.1 freq=80000
.step tol1=0.15 freq=80000
.step tol1=0.2 freq=80000
.step tol1=0.25 freq=80000
.step tol1=0.3 freq=80000
.step tol1=0.35 freq=80000
.step tol1=0.4 freq=80000
.step tol1=0.45 freq=80000
.step tol1=0.5 freq=80000
.step tol1=0.55 freq=80000
.step tol1=0.6 freq=80000
.step tol1=0.65 freq=80000
.step tol1=0.7 freq=80000
.step tol1=0.75 freq=80000
.step tol1=0.8 freq=80000
.step tol1=0.85 freq=80000
.step tol1=0.9 freq=80000
.step tol1=0.95 freq=80000
.step tol1=1 freq=80000
.step tol1=1.05 freq=80000
.step tol1=1.1 freq=80000
.step tol1=1.15 freq=80000
.step tol1=1.2 freq=80000
.step tol1=1.25 freq=80000
.step tol1=1.3 freq=80000
.step tol1=1.35 freq=80000
.step tol1=1.4 freq=80000
.step tol1=1.45 freq=80000
.step tol1=1.5 freq=80000
.step tol1=1.55 freq=80000
.step tol1=1.6 freq=80000
.step tol1=1.65 freq=80000
.step tol1=1.7 freq=80000
.step tol1=1.75 freq=80000
.step tol1=1.8 freq=80000
.step tol1=1.85 freq=80000
.step tol1=1.9 freq=80000
.step tol1=1.95 freq=80000
.step tol1=2 freq=80000
.step tol1=2.05 freq=80000
.step tol1=2.1 freq=80000
.step tol1=2.15 freq=80000
.step tol1=2.2 freq=80000
.step tol1=2.25 freq=80000
.step tol1=2.3 freq=80000
.step tol1=2.35 freq=80000
.step tol1=2.4 freq=80000
.step tol1=2.45 freq=80000
.step tol1=2.5 freq=80000
.step tol1=2.55 freq=80000
.step tol1=2.6 freq=80000
.step tol1=2.65 freq=80000
.step tol1=2.7 freq=80000
.step tol1=2.75 freq=80000
.step tol1=2.8 freq=80000
.step tol1=2.85 freq=80000
.step tol1=2.9 freq=80000
.step tol1=2.95 freq=80000
.step tol1=3 freq=80000
.step tol1=0 freq=60000
.step tol1=0.05 freq=60000
.step tol1=0.1 freq=60000
.step tol1=0.15 freq=60000
.step tol1=0.2 freq=60000
.step tol1=0.25 freq=60000
.step tol1=0.3 freq=60000
.step tol1=0.35 freq=60000
.step tol1=0.4 freq=60000
.step tol1=0.45 freq=60000
.step tol1=0.5 freq=60000
.step tol1=0.55 freq=60000
.step tol1=0.6 freq=60000
.step tol1=0.65 freq=60000
.step tol1=0.7 freq=60000
.step tol1=0.75 freq=60000
.step tol1=0.8 freq=60000
.step tol1=0.85 freq=60000
.step tol1=0.9 freq=60000
.step tol1=0.95 freq=60000
.step tol1=1 freq=60000
.step tol1=1.05 freq=60000
.step tol1=1.1 freq=60000
.step tol1=1.15 freq=60000
.step tol1=1.2 freq=60000
.step tol1=1.25 freq=60000
.step tol1=1.3 freq=60000
.step tol1=1.35 freq=60000
.step tol1=1.4 freq=60000
.step tol1=1.45 freq=60000
.step tol1=1.5 freq=60000
.step tol1=1.55 freq=60000
.step tol1=1.6 freq=60000
.step tol1=1.65 freq=60000
.step tol1=1.7 freq=60000
.step tol1=1.75 freq=60000
.step tol1=1.8 freq=60000
.step tol1=1.85 freq=60000
.step tol1=1.9 freq=60000
.step tol1=1.95 freq=60000
.step tol1=2 freq=60000
.step tol1=2.05 freq=60000
.step tol1=2.1 freq=60000
.step tol1=2.15 freq=60000
.step tol1=2.2 freq=60000
.step tol1=2.25 freq=60000
.step tol1=2.3 freq=60000
.step tol1=2.35 freq=60000
.step tol1=2.4 freq=60000
.step tol1=2.45 freq=60000
.step tol1=2.5 freq=60000
.step tol1=2.55 freq=60000
.step tol1=2.6 freq=60000
.step tol1=2.65 freq=60000
.step tol1=2.7 freq=60000
.step tol1=2.75 freq=60000
.step tol1=2.8 freq=60000
.step tol1=2.85 freq=60000
.step tol1=2.9 freq=60000
.step tol1=2.95 freq=60000
.step tol1=3 freq=60000


Measurement: imax
  step	MAX(-i(v1))	FROM	TO
     1	47.9818	0	5e-006
     2	47.9799	0	5e-006
     3	47.978	0	5e-006
     4	47.9759	0	5e-006
     5	47.9737	0	5e-006
     6	47.9715	0	5e-006
     7	47.9693	0	5e-006
     8	47.9669	0	5e-006
     9	47.9644	0	5e-006
    10	47.962	0	5e-006
    11	47.9591	0	5e-006
    12	47.9565	0	5e-006
    13	47.9533	0	5e-006
    14	47.9503	0	5e-006
    15	47.947	0	5e-006
    16	47.9436	0	5e-006
    17	47.94	0	5e-006
    18	47.9362	0	5e-006
    19	47.9322	0	5e-006
    20	47.9279	0	5e-006
    21	47.9235	0	5e-006
    22	47.9187	0	5e-006
    23	47.9137	0	5e-006
    24	47.9082	0	5e-006
    25	47.9026	0	5e-006
    26	47.8965	0	5e-006
    27	47.8899	0	5e-006
    28	47.8829	0	5e-006
    29	47.8752	0	5e-006
    30	47.867	0	5e-006
    31	47.8579	0	5e-006
    32	47.8483	0	5e-006
    33	47.8375	0	5e-006
    34	47.8256	0	5e-006
    35	47.8125	0	5e-006
    36	47.7979	0	5e-006
    37	47.7814	0	5e-006
    38	47.7627	0	5e-006
    39	47.7411	0	5e-006
    40	47.716	0	5e-006
    41	47.6862	0	5e-006
    42	47.65	0	5e-006
    43	47.6043	0	5e-006
    44	47.5432	0	5e-006
    45	47.4065	0	5e-006
    46	45.3283	0	5e-006
    47	42.4857	0	5e-006
    48	38.8673	0	5e-006
    49	34.4434	0	5e-006
    50	30.1287	0	5e-006
    51	26.0132	0	5e-006
    52	22.1118	0	5e-006
    53	18.4394	0	5e-006
    54	15.0132	0	5e-006
    55	11.8531	0	5e-006
    56	8.98265	0	5e-006
    57	6.43013	0	5e-006
    58	4.22997	0	5e-006
    59	2.42492	0	5e-006
    60	1.06913	0	5e-006
    61	0.232964	0	5e-006
    62	47.9818	0	6.66667e-006
    63	47.9799	0	6.66667e-006
    64	47.9779	0	6.66667e-006
    65	47.9759	0	6.66667e-006
    66	47.9738	0	6.66667e-006
    67	47.9715	0	6.66667e-006
    68	47.9692	0	6.66667e-006
    69	47.9671	0	6.66667e-006
    70	47.9644	0	6.66667e-006
    71	47.9618	0	6.66667e-006
    72	47.959	0	6.66667e-006
    73	47.9562	0	6.66667e-006
    74	47.9533	0	6.66667e-006
    75	47.9502	0	6.66667e-006
    76	47.947	0	6.66667e-006
    77	47.9435	0	6.66667e-006
    78	47.9399	0	6.66667e-006
    79	47.9361	0	6.66667e-006
    80	47.9322	0	6.66667e-006
    81	47.9279	0	6.66667e-006
    82	47.9234	0	6.66667e-006
    83	47.9186	0	6.66667e-006
    84	47.9137	0	6.66667e-006
    85	47.9082	0	6.66667e-006
    86	47.9026	0	6.66667e-006
    87	47.8964	0	6.66667e-006
    88	47.8898	0	6.66667e-006
    89	47.8829	0	6.66667e-006
    90	47.8751	0	6.66667e-006
    91	47.8669	0	6.66667e-006
    92	47.8579	0	6.66667e-006
    93	47.8482	0	6.66667e-006
    94	47.8373	0	6.66667e-006
    95	47.8255	0	6.66667e-006
    96	47.8124	0	6.66667e-006
    97	47.7978	0	6.66667e-006
    98	47.7814	0	6.66667e-006
    99	47.7627	0	6.66667e-006
   100	47.7411	0	6.66667e-006
   101	47.716	0	6.66667e-006
   102	47.6862	0	6.66667e-006
   103	47.65	0	6.66667e-006
   104	47.6044	0	6.66667e-006
   105	47.5437	0	6.66667e-006
   106	47.4539	0	6.66667e-006
   107	46.1256	0	6.66667e-006
   108	42.9055	0	6.66667e-006
   109	38.9296	0	6.66667e-006
   110	34.4456	0	6.66667e-006
   111	30.1288	0	6.66667e-006
   112	26.0132	0	6.66667e-006
   113	22.1118	0	6.66667e-006
   114	18.4394	0	6.66667e-006
   115	15.0132	0	6.66667e-006
   116	11.8531	0	6.66667e-006
   117	8.98265	0	6.66667e-006
   118	6.43013	0	6.66667e-006
   119	4.22997	0	6.66667e-006
   120	2.42492	0	6.66667e-006
   121	1.06913	0	6.66667e-006
   122	0.232964	0	6.66667e-006
   123	47.9818	0	1e-005
   124	47.9799	0	1e-005
   125	47.978	0	1e-005
   126	47.9761	0	1e-005
   127	47.9738	0	1e-005
   128	47.9715	0	1e-005
   129	47.9692	0	1e-005
   130	47.9669	0	1e-005
   131	47.9644	0	1e-005
   132	47.9619	0	1e-005
   133	47.9593	0	1e-005
   134	47.9563	0	1e-005
   135	47.9533	0	1e-005
   136	47.9502	0	1e-005
   137	47.9469	0	1e-005
   138	47.9435	0	1e-005
   139	47.94	0	1e-005
   140	47.9361	0	1e-005
   141	47.9322	0	1e-005
   142	47.9279	0	1e-005
   143	47.9234	0	1e-005
   144	47.9187	0	1e-005
   145	47.9137	0	1e-005
   146	47.9083	0	1e-005
   147	47.9025	0	1e-005
   148	47.8965	0	1e-005
   149	47.8899	0	1e-005
   150	47.8828	0	1e-005
   151	47.8752	0	1e-005
   152	47.8669	0	1e-005
   153	47.858	0	1e-005
   154	47.8481	0	1e-005
   155	47.8374	0	1e-005
   156	47.8256	0	1e-005
   157	47.8124	0	1e-005
   158	47.7978	0	1e-005
   159	47.7814	0	1e-005
   160	47.7627	0	1e-005
   161	47.7411	0	1e-005
   162	47.716	0	1e-005
   163	47.6862	0	1e-005
   164	47.65	0	1e-005
   165	47.6044	0	1e-005
   166	47.5437	0	1e-005
   167	47.4546	0	1e-005
   168	47.0911	0	1e-005
   169	43.3221	0	1e-005
   170	38.9508	0	1e-005
   171	34.4458	0	1e-005
   172	30.1288	0	1e-005
   173	26.0132	0	1e-005
   174	22.1118	0	1e-005
   175	18.4394	0	1e-005
   176	15.0132	0	1e-005
   177	11.8531	0	1e-005
   178	8.98265	0	1e-005
   179	6.43013	0	1e-005
   180	4.22997	0	1e-005
   181	2.42492	0	1e-005
   182	1.06913	0	1e-005
   183	0.232964	0	1e-005
   184	47.9818	0	1.25e-005
   185	47.9801	0	1.25e-005
   186	47.9779	0	1.25e-005
   187	47.9759	0	1.25e-005
   188	47.9738	0	1.25e-005
   189	47.9715	0	1.25e-005
   190	47.9692	0	1.25e-005
   191	47.9669	0	1.25e-005
   192	47.9644	0	1.25e-005
   193	47.9618	0	1.25e-005
   194	47.9592	0	1.25e-005
   195	47.9563	0	1.25e-005
   196	47.9533	0	1.25e-005
   197	47.9503	0	1.25e-005
   198	47.947	0	1.25e-005
   199	47.9435	0	1.25e-005
   200	47.9399	0	1.25e-005
   201	47.9361	0	1.25e-005
   202	47.9321	0	1.25e-005
   203	47.928	0	1.25e-005
   204	47.9235	0	1.25e-005
   205	47.9186	0	1.25e-005
   206	47.9136	0	1.25e-005
   207	47.9083	0	1.25e-005
   208	47.9026	0	1.25e-005
   209	47.8965	0	1.25e-005
   210	47.8897	0	1.25e-005
   211	47.8829	0	1.25e-005
   212	47.8752	0	1.25e-005
   213	47.867	0	1.25e-005
   214	47.8579	0	1.25e-005
   215	47.8481	0	1.25e-005
   216	47.8374	0	1.25e-005
   217	47.8256	0	1.25e-005
   218	47.8124	0	1.25e-005
   219	47.7979	0	1.25e-005
   220	47.7815	0	1.25e-005
   221	47.7628	0	1.25e-005
   222	47.7412	0	1.25e-005
   223	47.7161	0	1.25e-005
   224	47.6862	0	1.25e-005
   225	47.65	0	1.25e-005
   226	47.6044	0	1.25e-005
   227	47.5438	0	1.25e-005
   228	47.4545	0	1.25e-005
   229	47.2727	0	1.25e-005
   230	43.4657	0	1.25e-005
   231	38.9523	0	1.25e-005
   232	34.4458	0	1.25e-005
   233	30.1288	0	1.25e-005
   234	26.0132	0	1.25e-005
   235	22.1118	0	1.25e-005
   236	18.4394	0	1.25e-005
   237	15.0132	0	1.25e-005
   238	11.8531	0	1.25e-005
   239	8.98265	0	1.25e-005
   240	6.43013	0	1.25e-005
   241	4.22997	0	1.25e-005
   242	2.42492	0	1.25e-005
   243	1.06913	0	1.25e-005
   244	0.232964	0	1.25e-005
   245	47.9818	0	1.66667e-005
   246	47.9799	0	1.66667e-005
   247	47.9781	0	1.66667e-005
   248	47.9759	0	1.66667e-005
   249	47.9738	0	1.66667e-005
   250	47.9715	0	1.66667e-005
   251	47.9692	0	1.66667e-005
   252	47.9669	0	1.66667e-005
   253	47.9644	0	1.66667e-005
   254	47.9618	0	1.66667e-005
   255	47.9591	0	1.66667e-005
   256	47.9564	0	1.66667e-005
   257	47.9533	0	1.66667e-005
   258	47.9502	0	1.66667e-005
   259	47.9469	0	1.66667e-005
   260	47.9436	0	1.66667e-005
   261	47.9399	0	1.66667e-005
   262	47.9361	0	1.66667e-005
   263	47.9321	0	1.66667e-005
   264	47.9279	0	1.66667e-005
   265	47.9235	0	1.66667e-005
   266	47.9186	0	1.66667e-005
   267	47.9137	0	1.66667e-005
   268	47.9084	0	1.66667e-005
   269	47.9024	0	1.66667e-005
   270	47.8963	0	1.66667e-005
   271	47.8897	0	1.66667e-005
   272	47.8828	0	1.66667e-005
   273	47.8752	0	1.66667e-005
   274	47.8669	0	1.66667e-005
   275	47.8579	0	1.66667e-005
   276	47.8482	0	1.66667e-005
   277	47.8376	0	1.66667e-005
   278	47.8255	0	1.66667e-005
   279	47.8125	0	1.66667e-005
   280	47.798	0	1.66667e-005
   281	47.7816	0	1.66667e-005
   282	47.7628	0	1.66667e-005
   283	47.7412	0	1.66667e-005
   284	47.716	0	1.66667e-005
   285	47.6863	0	1.66667e-005
   286	47.65	0	1.66667e-005
   287	47.6044	0	1.66667e-005
   288	47.5437	0	1.66667e-005
   289	47.4546	0	1.66667e-005
   290	47.2779	0	1.66667e-005
   291	43.5741	0	1.66667e-005
   292	38.9526	0	1.66667e-005
   293	34.4458	0	1.66667e-005
   294	30.1289	0	1.66667e-005
   295	26.0133	0	1.66667e-005
   296	22.1119	0	1.66667e-005
   297	18.4395	0	1.66667e-005
   298	15.0132	0	1.66667e-005
   299	11.8531	0	1.66667e-005
   300	8.98265	0	1.66667e-005
   301	6.43013	0	1.66667e-005
   302	4.22997	0	1.66667e-005
   303	2.42492	0	1.66667e-005
   304	1.06913	0	1.66667e-005
   305	0.232964	0	1.66667e-005

Measurement: tr1
  step	tr1	FROM	TO
     1	2.76495e-008	1.01518e-006	1.04283e-006
     2	2.83111e-008	1.0157e-006	1.04401e-006
     3	2.91766e-008	1.01621e-006	1.04539e-006
     4	3.00882e-008	1.01674e-006	1.04683e-006
     5	3.1e-008	1.01731e-006	1.04831e-006
     6	3.19752e-008	1.01822e-006	1.0502e-006
     7	3.24618e-008	1.01916e-006	1.05162e-006
     8	3.3395e-008	1.02011e-006	1.0535e-006
     9	3.44218e-008	1.02073e-006	1.05515e-006
    10	3.54458e-008	1.02133e-006	1.05678e-006
    11	3.65882e-008	1.02196e-006	1.05854e-006
    12	3.82441e-008	1.02269e-006	1.06094e-006
    13	3.91202e-008	1.02366e-006	1.06278e-006
    14	4.05129e-008	1.02476e-006	1.06528e-006
    15	4.1728e-008	1.02572e-006	1.06745e-006
    16	4.32164e-008	1.02643e-006	1.06965e-006
    17	4.49013e-008	1.02719e-006	1.07209e-006
    18	4.69667e-008	1.02806e-006	1.07502e-006
    19	4.90233e-008	1.02904e-006	1.07806e-006
    20	5.07392e-008	1.03039e-006	1.08113e-006
    21	5.30049e-008	1.03136e-006	1.08436e-006
    22	5.54742e-008	1.03223e-006	1.08771e-006
    23	5.83114e-008	1.03323e-006	1.09154e-006
    24	6.12639e-008	1.03438e-006	1.09564e-006
    25	6.42369e-008	1.03571e-006	1.09995e-006
    26	6.77424e-008	1.0369e-006	1.10464e-006
    27	7.16726e-008	1.038e-006	1.10967e-006
    28	7.59383e-008	1.03926e-006	1.11519e-006
    29	8.04374e-008	1.04075e-006	1.12119e-006
    30	8.56668e-008	1.0421e-006	1.12777e-006
    31	9.15168e-008	1.04341e-006	1.13492e-006
    32	9.79667e-008	1.04492e-006	1.14288e-006
    33	1.0521e-007	1.04655e-006	1.15176e-006
    34	1.13687e-007	1.04809e-006	1.16178e-006
    35	1.23182e-007	1.04975e-006	1.17293e-006
    36	1.34307e-007	1.05157e-006	1.18588e-006
    37	1.474e-007	1.05336e-006	1.20076e-006
    38	1.62877e-007	1.05533e-006	1.21821e-006
    39	1.81567e-007	1.05736e-006	1.23893e-006
    40	2.04673e-007	1.05951e-006	1.26419e-006
    41	2.33702e-007	1.06182e-006	1.29552e-006
    42	2.71861e-007	1.06425e-006	1.33611e-006
    43	3.24213e-007	1.06688e-006	1.39109e-006
    44	4.0033e-007	1.06967e-006	1.47e-006
    45	5.18892e-007	1.07269e-006	1.59158e-006
    46	4.56593e-007	1.07544e-006	1.53204e-006
    47	3.86478e-007	1.07818e-006	1.46465e-006
    48	3.4916e-007	1.08087e-006	1.43004e-006
    49	3.00999e-007	1.08346e-006	1.38446e-006
    50	2.69078e-007	1.08624e-006	1.35532e-006
    51	2.46074e-007	1.08927e-006	1.33534e-006
    52	2.27801e-007	1.0926e-006	1.3204e-006
    53	2.12358e-007	1.09631e-006	1.30866e-006
    54	1.98801e-007	1.10047e-006	1.29927e-006
    55	1.86141e-007	1.10521e-006	1.29136e-006
    56	1.74069e-007	1.11071e-006	1.28477e-006
    57	1.62197e-007	1.11724e-006	1.27944e-006
    58	1.50092e-007	1.12531e-006	1.2754e-006
    59	1.37932e-007	1.13537e-006	1.2733e-006
    60	1.30884e-007	1.14377e-006	1.27465e-006
    61	1.40955e-007	1.13954e-006	1.28049e-006
    62	2.80772e-008	1.3485e-006	1.37658e-006
    63	2.91111e-008	1.34899e-006	1.3781e-006
    64	3.01029e-008	1.34946e-006	1.37956e-006
    65	3.04582e-008	1.3504e-006	1.38086e-006
    66	3.06794e-008	1.35126e-006	1.38194e-006
    67	3.16599e-008	1.35181e-006	1.38347e-006
    68	3.2504e-008	1.35236e-006	1.38486e-006
    69	3.39793e-008	1.35291e-006	1.38689e-006
    70	3.51864e-008	1.35369e-006	1.38887e-006
    71	3.61248e-008	1.35438e-006	1.39051e-006
    72	3.76625e-008	1.35491e-006	1.39257e-006
    73	3.85467e-008	1.35588e-006	1.39443e-006
    74	3.99481e-008	1.35693e-006	1.39688e-006
    75	4.06769e-008	1.35803e-006	1.39871e-006
    76	4.19293e-008	1.3589e-006	1.40083e-006
    77	4.32084e-008	1.35959e-006	1.4028e-006
    78	4.51754e-008	1.36029e-006	1.40547e-006
    79	4.72851e-008	1.36102e-006	1.40831e-006
    80	4.95856e-008	1.36186e-006	1.41145e-006
    81	5.14442e-008	1.36309e-006	1.41454e-006
    82	5.35219e-008	1.36439e-006	1.41791e-006
    83	5.55981e-008	1.36572e-006	1.42132e-006
    84	5.82986e-008	1.36659e-006	1.42489e-006
    85	6.13945e-008	1.36746e-006	1.42885e-006
    86	6.47792e-008	1.36842e-006	1.4332e-006
    87	6.85047e-008	1.36954e-006	1.43805e-006
    88	7.20724e-008	1.37099e-006	1.44307e-006
    89	7.59128e-008	1.37269e-006	1.4486e-006
    90	8.0748e-008	1.37385e-006	1.4546e-006
    91	8.6028e-008	1.37497e-006	1.46099e-006
    92	9.2008e-008	1.37627e-006	1.46828e-006
    93	9.84441e-008	1.37778e-006	1.47622e-006
    94	1.0558e-007	1.37953e-006	1.48511e-006
    95	1.13842e-007	1.38123e-006	1.49507e-006
    96	1.23602e-007	1.38272e-006	1.50633e-006
    97	1.34624e-007	1.38446e-006	1.51908e-006
    98	1.47527e-007	1.38653e-006	1.53405e-006
    99	1.62987e-007	1.38847e-006	1.55146e-006
   100	1.81752e-007	1.3904e-006	1.57215e-006
   101	2.04606e-007	1.39265e-006	1.59725e-006
   102	2.33815e-007	1.395e-006	1.62882e-006
   103	2.71912e-007	1.39741e-006	1.66932e-006
   104	3.24017e-007	1.4001e-006	1.72412e-006
   105	4.00131e-007	1.40287e-006	1.803e-006
   106	5.24548e-007	1.40593e-006	1.93048e-006
   107	5.59342e-007	1.40888e-006	1.96822e-006
   108	4.17855e-007	1.41151e-006	1.82937e-006
   109	3.52662e-007	1.41413e-006	1.76679e-006
   110	3.01297e-007	1.41665e-006	1.71795e-006
   111	2.69081e-007	1.41947e-006	1.68855e-006
   112	2.46106e-007	1.42244e-006	1.66855e-006
   113	2.27896e-007	1.4258e-006	1.6537e-006
   114	2.12441e-007	1.42944e-006	1.64188e-006
   115	1.98766e-007	1.43362e-006	1.63239e-006
   116	1.86231e-007	1.43832e-006	1.62455e-006
   117	1.74273e-007	1.44374e-006	1.61801e-006
   118	1.62426e-007	1.45024e-006	1.61266e-006
   119	1.50242e-007	1.45835e-006	1.60859e-006
   120	1.38525e-007	1.46797e-006	1.60649e-006
   121	1.31054e-007	1.47675e-006	1.60781e-006
   122	1.40911e-007	1.47253e-006	1.61344e-006
   123	2.76427e-008	2.01502e-006	2.04266e-006
   124	2.89128e-008	2.01564e-006	2.04455e-006
   125	2.92268e-008	2.0164e-006	2.04563e-006
   126	2.99343e-008	2.01722e-006	2.04716e-006
   127	3.07656e-008	2.01802e-006	2.04878e-006
   128	3.15931e-008	2.01869e-006	2.05029e-006
   129	3.25678e-008	2.0194e-006	2.05197e-006
   130	3.36258e-008	2.01997e-006	2.0536e-006
   131	3.55471e-008	2.02005e-006	2.0556e-006
   132	3.67715e-008	2.02109e-006	2.05787e-006
   133	3.70608e-008	2.02218e-006	2.05925e-006
   134	3.80409e-008	2.02303e-006	2.06107e-006
   135	3.95758e-008	2.02365e-006	2.06323e-006
   136	4.10585e-008	2.02427e-006	2.06533e-006
   137	4.23092e-008	2.02517e-006	2.06748e-006
   138	4.41206e-008	2.02608e-006	2.0702e-006
   139	4.60104e-008	2.02702e-006	2.07303e-006
   140	4.78605e-008	2.02792e-006	2.07578e-006
   141	4.98656e-008	2.02874e-006	2.0786e-006
   142	5.21688e-008	2.02901e-006	2.08118e-006
   143	5.45743e-008	2.03027e-006	2.08484e-006
   144	5.66112e-008	2.03162e-006	2.08823e-006
   145	5.88865e-008	2.03302e-006	2.0919e-006
   146	6.15454e-008	2.03421e-006	2.09575e-006
   147	6.46483e-008	2.03515e-006	2.0998e-006
   148	6.84481e-008	2.03606e-006	2.10451e-006
   149	7.25673e-008	2.037e-006	2.10957e-006
   150	7.71535e-008	2.03799e-006	2.11514e-006
   151	8.19438e-008	2.03921e-006	2.12115e-006
   152	8.69301e-008	2.04082e-006	2.12775e-006
   153	9.24182e-008	2.04261e-006	2.13503e-006
   154	9.85513e-008	2.04455e-006	2.1431e-006
   155	1.05917e-007	2.04598e-006	2.1519e-006
   156	1.14547e-007	2.04727e-006	2.16182e-006
   157	1.24426e-007	2.04859e-006	2.17301e-006
   158	1.3562e-007	2.05015e-006	2.18577e-006
   159	1.4859e-007	2.05198e-006	2.20057e-006
   160	1.6354e-007	2.05448e-006	2.21802e-006
   161	1.81781e-007	2.05693e-006	2.23871e-006
   162	2.05046e-007	2.05874e-006	2.26379e-006
   163	2.34191e-007	2.0608e-006	2.29499e-006
   164	2.72342e-007	2.06324e-006	2.33558e-006
   165	3.23912e-007	2.06616e-006	2.39007e-006
   166	4.00163e-007	2.0692e-006	2.46936e-006
   167	5.24602e-007	2.07205e-006	2.59666e-006
   168	7.27478e-007	2.07532e-006	2.80279e-006
   169	4.55e-007	2.07802e-006	2.53302e-006
   170	3.53984e-007	2.08042e-006	2.4344e-006
   171	3.01336e-007	2.08276e-006	2.38409e-006
   172	2.69248e-007	2.08554e-006	2.35479e-006
   173	2.46091e-007	2.08872e-006	2.33481e-006
   174	2.28141e-007	2.09174e-006	2.31988e-006
   175	2.12752e-007	2.0955e-006	2.30825e-006
   176	1.99201e-007	2.09957e-006	2.29878e-006
   177	1.86702e-007	2.10416e-006	2.29086e-006
   178	1.74778e-007	2.10954e-006	2.28432e-006
   179	1.62866e-007	2.11616e-006	2.27903e-006
   180	1.5135e-007	2.1236e-006	2.27495e-006
   181	1.39358e-007	2.1333e-006	2.27266e-006
   182	1.31581e-007	2.14247e-006	2.27405e-006
   183	1.40713e-007	2.13815e-006	2.27886e-006
   184	2.7863e-008	2.51505e-006	2.54292e-006
   185	2.91568e-008	2.51544e-006	2.54459e-006
   186	2.93727e-008	2.51636e-006	2.54573e-006
   187	2.9887e-008	2.51727e-006	2.54715e-006
   188	3.09717e-008	2.51781e-006	2.54878e-006
   189	3.15977e-008	2.51834e-006	2.54993e-006
   190	3.28466e-008	2.51902e-006	2.55187e-006
   191	3.36058e-008	2.51987e-006	2.55347e-006
   192	3.47311e-008	2.52078e-006	2.55551e-006
   193	3.57196e-008	2.52169e-006	2.55741e-006
   194	3.6886e-008	2.5224e-006	2.55928e-006
   195	3.81591e-008	2.52312e-006	2.56128e-006
   196	3.93774e-008	2.52388e-006	2.56326e-006
   197	4.0791e-008	2.52469e-006	2.56548e-006
   198	4.22416e-008	2.52559e-006	2.56783e-006
   199	4.41255e-008	2.52628e-006	2.57041e-006
   200	4.62053e-008	2.52646e-006	2.57266e-006
   201	4.77023e-008	2.52773e-006	2.57543e-006
   202	4.9588e-008	2.52893e-006	2.57852e-006
   203	5.08938e-008	2.52999e-006	2.58089e-006
   204	5.33382e-008	2.53075e-006	2.58409e-006
   205	5.62031e-008	2.5316e-006	2.5878e-006
   206	5.90166e-008	2.53265e-006	2.59167e-006
   207	6.1945e-008	2.53376e-006	2.5957e-006
   208	6.52988e-008	2.53489e-006	2.60019e-006
   209	6.87115e-008	2.53598e-006	2.60469e-006
   210	7.28684e-008	2.53694e-006	2.60981e-006
   211	7.75782e-008	2.53764e-006	2.61522e-006
   212	8.20014e-008	2.53929e-006	2.62129e-006
   213	8.67486e-008	2.54107e-006	2.62781e-006
   214	9.21319e-008	2.54282e-006	2.63495e-006
   215	9.88787e-008	2.54427e-006	2.64315e-006
   216	1.0638e-007	2.54547e-006	2.65185e-006
   217	1.15089e-007	2.54674e-006	2.66182e-006
   218	1.24913e-007	2.54806e-006	2.67297e-006
   219	1.36246e-007	2.54944e-006	2.68569e-006
   220	1.4919e-007	2.5514e-006	2.70059e-006
   221	1.64228e-007	2.55381e-006	2.71804e-006
   222	1.8229e-007	2.55652e-006	2.73881e-006
   223	2.04992e-007	2.55878e-006	2.76377e-006
   224	2.34347e-007	2.56071e-006	2.79506e-006
   225	2.72288e-007	2.56272e-006	2.83501e-006
   226	3.24606e-007	2.56519e-006	2.8898e-006
   227	4.00605e-007	2.56815e-006	2.96876e-006
   228	5.24148e-007	2.57169e-006	3.09583e-006
   229	7.65639e-007	2.57516e-006	3.3408e-006
   230	4.70011e-007	2.57732e-006	3.04733e-006
   231	3.54436e-007	2.57954e-006	2.93398e-006
   232	3.01633e-007	2.58216e-006	2.88379e-006
   233	2.69075e-007	2.58536e-006	2.85444e-006
   234	2.46582e-007	2.58794e-006	2.83452e-006
   235	2.28649e-007	2.59093e-006	2.81958e-006
   236	2.13214e-007	2.59475e-006	2.80796e-006
   237	1.9959e-007	2.59892e-006	2.79851e-006
   238	1.87389e-007	2.6032e-006	2.79059e-006
   239	1.75264e-007	2.60879e-006	2.78405e-006
   240	1.63715e-007	2.61495e-006	2.77867e-006
   241	1.51747e-007	2.62297e-006	2.77472e-006
   242	1.40036e-007	2.63247e-006	2.77251e-006
   243	1.32368e-007	2.64149e-006	2.77386e-006
   244	1.41002e-007	2.63712e-006	2.77812e-006
   245	2.76211e-008	3.34863e-006	3.37625e-006
   246	2.84781e-008	3.34915e-006	3.37762e-006
   247	2.9036e-008	3.34965e-006	3.37869e-006
   248	3.02893e-008	3.35027e-006	3.38056e-006
   249	3.08311e-008	3.35106e-006	3.3819e-006
   250	3.1679e-008	3.35192e-006	3.3836e-006
   251	3.26085e-008	3.35277e-006	3.38538e-006
   252	3.36168e-008	3.35345e-006	3.38707e-006
   253	3.46274e-008	3.35415e-006	3.38878e-006
   254	3.56991e-008	3.3549e-006	3.3906e-006
   255	3.6821e-008	3.3557e-006	3.39252e-006
   256	3.88367e-008	3.35604e-006	3.39488e-006
   257	4.02541e-008	3.35659e-006	3.39685e-006
   258	4.12109e-008	3.35775e-006	3.39897e-006
   259	4.23091e-008	3.35882e-006	3.40113e-006
   260	4.35169e-008	3.35958e-006	3.40309e-006
   261	4.58386e-008	3.36025e-006	3.40609e-006
   262	4.72006e-008	3.36113e-006	3.40833e-006
   263	4.94557e-008	3.36212e-006	3.41158e-006
   264	5.17012e-008	3.36316e-006	3.41487e-006
   265	5.39829e-008	3.36423e-006	3.41822e-006
   266	5.6383e-008	3.36528e-006	3.42166e-006
   267	5.90567e-008	3.36622e-006	3.42527e-006
   268	6.21608e-008	3.36704e-006	3.4292e-006
   269	6.59675e-008	3.36752e-006	3.43348e-006
   270	6.91767e-008	3.36906e-006	3.43824e-006
   271	7.23726e-008	3.37071e-006	3.44309e-006
   272	7.63749e-008	3.37226e-006	3.44863e-006
   273	8.10605e-008	3.37339e-006	3.45445e-006
   274	8.66201e-008	3.37443e-006	3.46105e-006
   275	9.26651e-008	3.37562e-006	3.46828e-006
   276	9.92112e-008	3.37709e-006	3.4763e-006
   277	1.06651e-007	3.37864e-006	3.48529e-006
   278	1.14973e-007	3.38019e-006	3.49517e-006
   279	1.24917e-007	3.38166e-006	3.50658e-006
   280	1.3688e-007	3.38235e-006	3.51923e-006
   281	1.4948e-007	3.38468e-006	3.53416e-006
   282	1.64065e-007	3.38728e-006	3.55134e-006
   283	1.82124e-007	3.38999e-006	3.57212e-006
   284	2.05335e-007	3.39179e-006	3.59713e-006
   285	2.34682e-007	3.3937e-006	3.62839e-006
   286	2.72994e-007	3.39575e-006	3.66874e-006
   287	3.25155e-007	3.39795e-006	3.7231e-006
   288	4.01797e-007	3.40026e-006	3.80206e-006
   289	5.25339e-007	3.4033e-006	3.92864e-006
   290	7.66083e-007	3.40772e-006	4.1738e-006
   291	4.81154e-007	3.41085e-006	3.892e-006
   292	3.54107e-007	3.41268e-006	3.76679e-006
   293	3.02087e-007	3.41444e-006	3.71653e-006
   294	2.70418e-007	3.41679e-006	3.68721e-006
   295	2.47843e-007	3.4196e-006	3.66744e-006
   296	2.29716e-007	3.42289e-006	3.6526e-006
   297	2.14386e-007	3.42624e-006	3.64062e-006
   298	2.00678e-007	3.43067e-006	3.63135e-006
   299	1.88446e-007	3.4349e-006	3.62335e-006
   300	1.7736e-007	3.43961e-006	3.61697e-006
   301	1.64562e-007	3.4468e-006	3.61137e-006
   302	1.54079e-007	3.45314e-006	3.60721e-006
   303	1.41637e-007	3.46352e-006	3.60516e-006
   304	1.34e-007	3.47228e-006	3.60628e-006
   305	1.41608e-007	3.46814e-006	3.60975e-006

Measurement: tr2
  step	tr2	FROM	TO
     1	4.47901e-008	3.09728e-006	3.14207e-006
     2	4.3544e-008	3.09536e-006	3.13891e-006
     3	4.24604e-008	3.09353e-006	3.13599e-006
     4	4.1436e-008	3.09181e-006	3.13324e-006
     5	4.04654e-008	3.08996e-006	3.13042e-006
     6	3.94224e-008	3.08815e-006	3.12757e-006
     7	3.88316e-008	3.08639e-006	3.12522e-006
     8	3.8038e-008	3.08468e-006	3.12271e-006
     9	3.74643e-008	3.08293e-006	3.1204e-006
    10	3.66197e-008	3.08133e-006	3.11795e-006
    11	3.60437e-008	3.07972e-006	3.11576e-006
    12	3.54815e-008	3.07804e-006	3.11353e-006
    13	3.50519e-008	3.07661e-006	3.11166e-006
    14	3.45747e-008	3.07494e-006	3.10951e-006
    15	3.39711e-008	3.07353e-006	3.1075e-006
    16	3.38183e-008	3.07177e-006	3.10559e-006
    17	3.3243e-008	3.07041e-006	3.10365e-006
    18	3.27784e-008	3.06885e-006	3.10163e-006
    19	3.25407e-008	3.0672e-006	3.09974e-006
    20	3.244e-008	3.06579e-006	3.09823e-006
    21	3.17845e-008	3.06462e-006	3.09641e-006
    22	3.13671e-008	3.06312e-006	3.09449e-006
    23	3.1514e-008	3.06157e-006	3.09309e-006
    24	3.09413e-008	3.06034e-006	3.09128e-006
    25	3.10079e-008	3.05879e-006	3.0898e-006
    26	3.09103e-008	3.05739e-006	3.0883e-006
    27	3.07336e-008	3.05603e-006	3.08676e-006
    28	3.01117e-008	3.05471e-006	3.08482e-006
    29	3.03579e-008	3.05334e-006	3.08369e-006
    30	3.00295e-008	3.052e-006	3.08203e-006
    31	2.95867e-008	3.05075e-006	3.08034e-006
    32	2.97906e-008	3.04933e-006	3.07912e-006
    33	2.99526e-008	3.04796e-006	3.07791e-006
    34	2.96604e-008	3.04667e-006	3.07633e-006
    35	2.96859e-008	3.0454e-006	3.07509e-006
    36	2.89928e-008	3.04416e-006	3.07315e-006
    37	2.92251e-008	3.04273e-006	3.07196e-006
    38	2.90314e-008	3.04144e-006	3.07047e-006
    39	2.88471e-008	3.04022e-006	3.06906e-006
    40	2.85363e-008	3.03892e-006	3.06746e-006
    41	2.87363e-008	3.03753e-006	3.06626e-006
    42	2.84827e-008	3.03619e-006	3.06467e-006
    43	2.82831e-008	3.03485e-006	3.06314e-006
    44	2.8015e-008	3.0336e-006	3.06161e-006
    45	2.7813e-008	3.03143e-006	3.05924e-006
    46	2.22314e-008	3.02306e-006	3.04529e-006
    47	1.75929e-008	3.0149e-006	3.03249e-006
    48	1.46786e-008	3.00877e-006	3.02345e-006
    49	1.23539e-008	3.00727e-006	3.01963e-006
    50	1.06961e-008	3.00658e-006	3.01727e-006
    51	9.28762e-009	3.00626e-006	3.01555e-006
    52	7.82096e-009	3.00597e-006	3.01379e-006
    53	6.95921e-009	3.0057e-006	3.01266e-006
    54	6.11937e-009	3.00548e-006	3.0116e-006
    55	5.37213e-009	3.00521e-006	3.01058e-006
    56	4.48735e-009	3.00498e-006	3.00946e-006
    57	3.57423e-009	3.00476e-006	3.00833e-006
    58	2.84744e-009	3.0045e-006	3.00735e-006
    59	2.52256e-009	3.00428e-006	3.00681e-006
    60	2.18276e-009	3.0041e-006	3.00628e-006
    61	2.9887e-009	3.00394e-006	3.00693e-006
    62	4.51832e-008	4.09723e-006	4.14242e-006
    63	4.38447e-008	4.09538e-006	4.13923e-006
    64	4.2882e-008	4.09356e-006	4.13645e-006
    65	4.19758e-008	4.09156e-006	4.13353e-006
    66	4.11127e-008	4.08973e-006	4.13084e-006
    67	4.01407e-008	4.08823e-006	4.12837e-006
    68	3.94527e-008	4.08629e-006	4.12575e-006
    69	3.8372e-008	4.08462e-006	4.12299e-006
    70	3.77013e-008	4.08287e-006	4.12057e-006
    71	3.72169e-008	4.08134e-006	4.11856e-006
    72	3.6681e-008	4.07951e-006	4.11619e-006
    73	3.6044e-008	4.0779e-006	4.11394e-006
    74	3.5605e-008	4.07642e-006	4.11202e-006
    75	3.51182e-008	4.07488e-006	4.10999e-006
    76	3.45494e-008	4.07318e-006	4.10773e-006
    77	3.50465e-008	4.07122e-006	4.10627e-006
    78	3.40543e-008	4.07018e-006	4.10423e-006
    79	3.35935e-008	4.06874e-006	4.10233e-006
    80	3.34969e-008	4.06714e-006	4.10064e-006
    81	3.33403e-008	4.06544e-006	4.09878e-006
    82	3.2853e-008	4.06435e-006	4.0972e-006
    83	3.22661e-008	4.06285e-006	4.09512e-006
    84	3.17654e-008	4.06154e-006	4.0933e-006
    85	3.19808e-008	4.05984e-006	4.09182e-006
    86	3.15996e-008	4.05835e-006	4.08995e-006
    87	3.13068e-008	4.05692e-006	4.08822e-006
    88	3.083e-008	4.05585e-006	4.08668e-006
    89	3.04397e-008	4.05463e-006	4.08507e-006
    90	3.03982e-008	4.05312e-006	4.08352e-006
    91	3.02563e-008	4.05165e-006	4.08191e-006
    92	3.03276e-008	4.05026e-006	4.08059e-006
    93	2.97577e-008	4.04921e-006	4.07897e-006
    94	2.9608e-008	4.04788e-006	4.07749e-006
    95	2.97001e-008	4.04645e-006	4.07615e-006
    96	2.96093e-008	4.04509e-006	4.0747e-006
    97	2.95157e-008	4.04374e-006	4.07326e-006
    98	2.91939e-008	4.04246e-006	4.07165e-006
    99	2.92493e-008	4.04116e-006	4.07041e-006
   100	2.93576e-008	4.0399e-006	4.06926e-006
   101	2.90882e-008	4.03854e-006	4.06763e-006
   102	2.88121e-008	4.03733e-006	4.06614e-006
   103	2.87439e-008	4.03595e-006	4.06469e-006
   104	2.85922e-008	4.03461e-006	4.0632e-006
   105	2.83758e-008	4.03323e-006	4.0616e-006
   106	2.80357e-008	4.03188e-006	4.05992e-006
   107	2.44803e-008	4.02542e-006	4.0499e-006
   108	1.77979e-008	4.01605e-006	4.03385e-006
   109	1.46885e-008	4.00881e-006	4.0235e-006
   110	1.22887e-008	4.00726e-006	4.01955e-006
   111	1.07169e-008	4.00654e-006	4.01726e-006
   112	9.3927e-009	4.00609e-006	4.01548e-006
   113	7.92792e-009	4.00577e-006	4.0137e-006
   114	7.20082e-009	4.00551e-006	4.01271e-006
   115	6.26403e-009	4.00524e-006	4.0115e-006
   116	5.69051e-009	4.00501e-006	4.0107e-006
   117	4.60216e-009	4.00481e-006	4.00941e-006
   118	3.70992e-009	4.00464e-006	4.00835e-006
   119	2.92023e-009	4.00443e-006	4.00735e-006
   120	2.69603e-009	4.00419e-006	4.00688e-006
   121	2.63086e-009	4.00398e-006	4.00661e-006
   122	3.04775e-009	4.00386e-006	4.00691e-006
   123	4.6614e-008	6.09723e-006	6.14384e-006
   124	4.54192e-008	6.09516e-006	6.14058e-006
   125	4.4444e-008	6.0935e-006	6.13795e-006
   126	4.36372e-008	6.09157e-006	6.13521e-006
   127	4.27783e-008	6.08975e-006	6.13252e-006
   128	4.11214e-008	6.08797e-006	6.12909e-006
   129	4.05148e-008	6.08608e-006	6.12659e-006
   130	3.89079e-008	6.08447e-006	6.12337e-006
   131	3.86093e-008	6.08289e-006	6.1215e-006
   132	3.79788e-008	6.08078e-006	6.11876e-006
   133	3.72434e-008	6.07948e-006	6.11673e-006
   134	3.66694e-008	6.07789e-006	6.11456e-006
   135	3.64706e-008	6.07612e-006	6.11259e-006
   136	3.55011e-008	6.07476e-006	6.11026e-006
   137	3.53013e-008	6.07281e-006	6.10812e-006
   138	3.48601e-008	6.07127e-006	6.10613e-006
   139	3.41699e-008	6.06996e-006	6.10413e-006
   140	3.3635e-008	6.06854e-006	6.10217e-006
   141	3.31237e-008	6.06713e-006	6.10026e-006
   142	3.32327e-008	6.06551e-006	6.09874e-006
   143	3.28832e-008	6.06367e-006	6.09655e-006
   144	3.26849e-008	6.06236e-006	6.09505e-006
   145	3.15621e-008	6.06139e-006	6.09295e-006
   146	3.18773e-008	6.05964e-006	6.09151e-006
   147	3.12497e-008	6.05852e-006	6.08976e-006
   148	3.16202e-008	6.05688e-006	6.0885e-006
   149	3.09874e-008	6.05561e-006	6.0866e-006
   150	3.04008e-008	6.05469e-006	6.08509e-006
   151	3.03736e-008	6.05291e-006	6.08329e-006
   152	3.06009e-008	6.05143e-006	6.08203e-006
   153	3.07537e-008	6.04993e-006	6.08069e-006
   154	3.04265e-008	6.04882e-006	6.07925e-006
   155	2.97275e-008	6.04772e-006	6.07745e-006
   156	2.97333e-008	6.04631e-006	6.07604e-006
   157	2.96871e-008	6.045e-006	6.07468e-006
   158	2.95447e-008	6.04376e-006	6.0733e-006
   159	2.94657e-008	6.04236e-006	6.07183e-006
   160	2.92e-008	6.04128e-006	6.07048e-006
   161	2.92762e-008	6.03952e-006	6.0688e-006
   162	2.92643e-008	6.03831e-006	6.06757e-006
   163	2.89422e-008	6.03712e-006	6.06607e-006
   164	2.92147e-008	6.03578e-006	6.065e-006
   165	2.89898e-008	6.03427e-006	6.06326e-006
   166	2.87202e-008	6.03283e-006	6.06155e-006
   167	2.83559e-008	6.03162e-006	6.05997e-006
   168	2.72606e-008	6.02888e-006	6.05614e-006
   169	1.81645e-008	6.01727e-006	6.03544e-006
   170	1.47385e-008	6.00883e-006	6.02357e-006
   171	1.22774e-008	6.00727e-006	6.01955e-006
   172	1.06577e-008	6.00663e-006	6.01729e-006
   173	9.28288e-009	6.00624e-006	6.01552e-006
   174	7.97953e-009	6.00596e-006	6.01394e-006
   175	7.27763e-009	6.00545e-006	6.01273e-006
   176	6.29868e-009	6.00525e-006	6.01155e-006
   177	5.62763e-009	6.00499e-006	6.01062e-006
   178	4.6051e-009	6.00478e-006	6.00938e-006
   179	3.65906e-009	6.00459e-006	6.00825e-006
   180	2.96452e-009	6.00443e-006	6.00739e-006
   181	2.63303e-009	6.00428e-006	6.00691e-006
   182	2.6671e-009	6.00403e-006	6.0067e-006
   183	3.01156e-009	6.0039e-006	6.00691e-006
   184	4.64858e-008	7.59715e-006	7.64364e-006
   185	4.57753e-008	7.59508e-006	7.64086e-006
   186	4.41258e-008	7.59332e-006	7.63745e-006
   187	4.25878e-008	7.59158e-006	7.63417e-006
   188	4.17277e-008	7.58982e-006	7.63155e-006
   189	4.06399e-008	7.58803e-006	7.62867e-006
   190	3.97764e-008	7.58609e-006	7.62587e-006
   191	3.99641e-008	7.58437e-006	7.62433e-006
   192	3.92124e-008	7.58252e-006	7.62174e-006
   193	3.83033e-008	7.5811e-006	7.61941e-006
   194	3.77064e-008	7.57925e-006	7.61696e-006
   195	3.62715e-008	7.57789e-006	7.61416e-006
   196	3.64138e-008	7.5761e-006	7.61251e-006
   197	3.56095e-008	7.57467e-006	7.61028e-006
   198	3.46874e-008	7.5731e-006	7.60779e-006
   199	3.50439e-008	7.57069e-006	7.60574e-006
   200	3.46335e-008	7.56964e-006	7.60427e-006
   201	3.42092e-008	7.56839e-006	7.6026e-006
   202	3.30695e-008	7.56721e-006	7.60028e-006
   203	3.30104e-008	7.56548e-006	7.59849e-006
   204	3.27969e-008	7.56371e-006	7.59651e-006
   205	3.23996e-008	7.56255e-006	7.59495e-006
   206	3.1908e-008	7.56132e-006	7.59323e-006
   207	3.23271e-008	7.55953e-006	7.59186e-006
   208	3.17097e-008	7.55828e-006	7.58999e-006
   209	3.10716e-008	7.55715e-006	7.58822e-006
   210	3.08891e-008	7.5558e-006	7.58669e-006
   211	3.03748e-008	7.55447e-006	7.58485e-006
   212	3.04392e-008	7.55307e-006	7.58351e-006
   213	3.01967e-008	7.55176e-006	7.58196e-006
   214	3.05543e-008	7.55002e-006	7.58057e-006
   215	3.04205e-008	7.54883e-006	7.57925e-006
   216	3.04205e-008	7.54712e-006	7.57754e-006
   217	2.9682e-008	7.54651e-006	7.57619e-006
   218	2.95735e-008	7.54522e-006	7.5748e-006
   219	2.9432e-008	7.54398e-006	7.57341e-006
   220	2.9296e-008	7.5426e-006	7.5719e-006
   221	2.9024e-008	7.54137e-006	7.57039e-006
   222	2.92924e-008	7.53974e-006	7.56903e-006
   223	2.91431e-008	7.53852e-006	7.56766e-006
   224	2.90335e-008	7.53714e-006	7.56618e-006
   225	2.87261e-008	7.53594e-006	7.56466e-006
   226	2.86979e-008	7.53446e-006	7.56316e-006
   227	2.85632e-008	7.53307e-006	7.56163e-006
   228	2.81495e-008	7.53161e-006	7.55976e-006
   229	2.78427e-008	7.52969e-006	7.55754e-006
   230	1.87945e-008	7.51756e-006	7.53636e-006
   231	1.45593e-008	7.50886e-006	7.52341e-006
   232	1.22987e-008	7.50726e-006	7.51956e-006
   233	1.07169e-008	7.50654e-006	7.51726e-006
   234	9.3927e-009	7.50609e-006	7.51548e-006
   235	7.92792e-009	7.50577e-006	7.5137e-006
   236	7.20082e-009	7.50551e-006	7.51271e-006
   237	6.26403e-009	7.50524e-006	7.5115e-006
   238	5.69051e-009	7.50501e-006	7.5107e-006
   239	4.60216e-009	7.50481e-006	7.50941e-006
   240	3.70992e-009	7.50464e-006	7.50835e-006
   241	2.92023e-009	7.50443e-006	7.50735e-006
   242	2.69603e-009	7.50419e-006	7.50688e-006
   243	2.63086e-009	7.50398e-006	7.50661e-006
   244	3.04775e-009	7.50386e-006	7.50691e-006
   245	4.67563e-008	1.0097e-005	1.01437e-005
   246	4.53598e-008	1.00947e-005	1.01401e-005
   247	4.52346e-008	1.00931e-005	1.01384e-005
   248	4.31157e-008	1.0091e-005	1.01341e-005
   249	4.29337e-008	1.00895e-005	1.01324e-005
   250	4.0568e-008	1.00879e-005	1.01284e-005
   251	3.96194e-008	1.00862e-005	1.01258e-005
   252	3.95675e-008	1.00841e-005	1.01237e-005
   253	3.93079e-008	1.00827e-005	1.0122e-005
   254	3.82356e-008	1.00809e-005	1.01191e-005
   255	3.74223e-008	1.00788e-005	1.01162e-005
   256	3.71038e-008	1.00773e-005	1.01144e-005
   257	3.62032e-008	1.00762e-005	1.01124e-005
   258	3.54704e-008	1.00746e-005	1.01101e-005
   259	3.53666e-008	1.00729e-005	1.01082e-005
   260	3.41311e-008	1.00716e-005	1.01057e-005
   261	3.37773e-008	1.00702e-005	1.0104e-005
   262	3.39266e-008	1.00681e-005	1.0102e-005
   263	3.32448e-008	1.00671e-005	1.01003e-005
   264	3.29635e-008	1.00655e-005	1.00985e-005
   265	3.27467e-008	1.00639e-005	1.00967e-005
   266	3.24908e-008	1.00623e-005	1.00948e-005
   267	3.25563e-008	1.00611e-005	1.00937e-005
   268	3.1987e-008	1.00598e-005	1.00918e-005
   269	3.15147e-008	1.00584e-005	1.00899e-005
   270	3.15614e-008	1.00567e-005	1.00882e-005
   271	3.11421e-008	1.00556e-005	1.00867e-005
   272	3.04272e-008	1.00546e-005	1.0085e-005
   273	3.03097e-008	1.00533e-005	1.00836e-005
   274	3.02221e-008	1.00518e-005	1.0082e-005
   275	2.99923e-008	1.00506e-005	1.00806e-005
   276	3.04209e-008	1.00488e-005	1.00792e-005
   277	2.97829e-008	1.00479e-005	1.00777e-005
   278	2.96703e-008	1.00465e-005	1.00762e-005
   279	2.95667e-008	1.00452e-005	1.00748e-005
   280	2.94449e-008	1.00439e-005	1.00734e-005
   281	2.93237e-008	1.00426e-005	1.0072e-005
   282	2.91419e-008	1.00413e-005	1.00705e-005
   283	2.93687e-008	1.00394e-005	1.00688e-005
   284	2.90649e-008	1.00386e-005	1.00676e-005
   285	2.90447e-008	1.00372e-005	1.00662e-005
   286	2.8652e-008	1.0036e-005	1.00647e-005
   287	2.85055e-008	1.00346e-005	1.00631e-005
   288	2.84612e-008	1.00332e-005	1.00617e-005
   289	2.81755e-008	1.00318e-005	1.006e-005
   290	2.76507e-008	1.00301e-005	1.00578e-005
   291	1.86786e-008	1.00179e-005	1.00366e-005
   292	1.47283e-008	1.00088e-005	1.00236e-005
   293	1.22914e-008	1.00073e-005	1.00196e-005
   294	1.07169e-008	1.00065e-005	1.00173e-005
   295	9.39273e-009	1.00061e-005	1.00155e-005
   296	7.92795e-009	1.00058e-005	1.00137e-005
   297	7.20084e-009	1.00055e-005	1.00127e-005
   298	6.26403e-009	1.00052e-005	1.00115e-005
   299	5.69051e-009	1.0005e-005	1.00107e-005
   300	4.60216e-009	1.00048e-005	1.00094e-005
   301	3.70992e-009	1.00046e-005	1.00084e-005
   302	2.92023e-009	1.00044e-005	1.00074e-005
   303	2.69603e-009	1.00042e-005	1.00069e-005
   304	2.63086e-009	1.0004e-005	1.00066e-005
   305	3.04775e-009	1.00039e-005	1.00069e-005

Measurement: vth
  step	v(n004)	at
     1	3.81043	1.00759e-006
     2	3.81494	1.00764e-006
     3	3.81791	1.00767e-006
     4	3.81969	1.00769e-006
     5	3.82027	1.0077e-006
     6	3.82885	1.00779e-006
     7	3.85461	1.00806e-006
     8	3.99273	1.0095e-006
     9	4.20994	1.01178e-006
    10	4.21382	1.01182e-006
    11	4.21575	1.01185e-006
    12	4.22002	1.0119e-006
    13	4.22921	1.012e-006
    14	4.26011	1.01236e-006
    15	4.41441	1.01417e-006
    16	4.62745	1.01666e-006
    17	4.63108	1.01671e-006
    18	4.63506	1.01676e-006
    19	4.64295	1.01687e-006
    20	4.67048	1.01723e-006
    21	4.8026	1.01899e-006
    22	4.99374	1.02155e-006
    23	4.99781	1.02161e-006
    24	5.0035	1.02169e-006
    25	5.02009	1.02195e-006
    26	5.10508	1.02325e-006
    27	5.31207	1.02641e-006
    28	5.31677	1.02649e-006
    29	5.32405	1.02662e-006
    30	5.35503	1.02716e-006
    31	5.4672	1.02913e-006
    32	5.5929	1.03134e-006
    33	5.59964	1.03147e-006
    34	5.62756	1.03203e-006
    35	5.72002	1.03389e-006
    36	5.8362	1.03623e-006
    37	5.84643	1.03646e-006
    38	5.89167	1.0375e-006
    39	6.02742	1.04063e-006
    40	6.05388	1.04126e-006
    41	6.08856	1.04218e-006
    42	6.19486	1.04498e-006
    43	6.24142	1.04625e-006
    44	6.28205	1.04748e-006
    45	6.39322	1.05084e-006
    46	6.41546	1.05161e-006
    47	6.48706	1.05409e-006
    48	6.54696	1.05624e-006
    49	6.60251	1.05844e-006
    50	6.66866	1.06114e-006
    51	6.72616	1.06375e-006
    52	6.7827	1.06645e-006
    53	6.85752	1.07035e-006
    54	6.89797	1.07277e-006
    55	6.95648	1.07641e-006
    56	7.01687	1.08061e-006
    57	7.07412	1.08512e-006
    58	7.1273	1.0899e-006
    59	7.17714	1.09507e-006
    60	7.2254	1.10092e-006
    61	7.27457	1.10801e-006
    62	3.70765	1.33992e-006
    63	3.70069	1.33985e-006
    64	3.69542	1.3398e-006
    65	3.72892	1.34014e-006
    66	3.89923	1.34184e-006
    67	3.95427	1.34239e-006
    68	3.95838	1.34244e-006
    69	3.96173	1.34247e-006
    70	3.96464	1.34251e-006
    71	3.96613	1.34252e-006
    72	3.96313	1.34249e-006
    73	3.97171	1.34259e-006
    74	3.99531	1.34285e-006
    75	4.12389	1.34428e-006
    76	4.44679	1.34788e-006
    77	4.45173	1.34795e-006
    78	4.45421	1.34798e-006
    79	4.45469	1.34799e-006
    80	4.45861	1.34804e-006
    81	4.46678	1.34814e-006
    82	4.49107	1.34846e-006
    83	4.62051	1.35012e-006
    84	4.95142	1.35439e-006
    85	4.95496	1.35445e-006
    86	4.95779	1.35449e-006
    87	4.96188	1.35455e-006
    88	4.97123	1.3547e-006
    89	5.00861	1.35527e-006
    90	5.16725	1.35771e-006
    91	5.37688	1.36093e-006
    92	5.38043	1.361e-006
    93	5.38525	1.36108e-006
    94	5.39848	1.36133e-006
    95	5.46801	1.36261e-006
    96	5.6673	1.36628e-006
    97	5.73214	1.36749e-006
    98	5.73784	1.36761e-006
    99	5.75803	1.36806e-006
   100	5.84144	1.3699e-006
   101	6.02387	1.37394e-006
   102	6.02977	1.3741e-006
   103	6.05251	1.3747e-006
   104	6.1256	1.37664e-006
   105	6.26998	1.38047e-006
   106	6.28192	1.38085e-006
   107	6.32656	1.38227e-006
   108	6.46037	1.38653e-006
   109	6.48748	1.38748e-006
   110	6.53454	1.38928e-006
   111	6.64585	1.39354e-006
   112	6.6723	1.39475e-006
   113	6.75547	1.39856e-006
   114	6.80596	1.40105e-006
   115	6.87694	1.40495e-006
   116	6.92865	1.40805e-006
   117	7.00492	1.41309e-006
   118	7.04923	1.41659e-006
   119	7.10696	1.42148e-006
   120	7.16522	1.42719e-006
   121	7.21939	1.43351e-006
   122	7.26964	1.44061e-006
   123	3.78575	2.00734e-006
   124	3.79179	2.0074e-006
   125	3.80152	2.0075e-006
   126	3.82036	2.00769e-006
   127	3.85941	2.0081e-006
   128	3.91798	2.0087e-006
   129	3.93234	2.00886e-006
   130	3.86499	2.00816e-006
   131	3.80032	2.00749e-006
   132	3.82486	2.00775e-006
   133	3.95892	2.00916e-006
   134	4.14653	2.01114e-006
   135	4.1519	2.01121e-006
   136	4.15609	2.01126e-006
   137	4.1608	2.01131e-006
   138	4.16683	2.01139e-006
   139	4.174	2.01147e-006
   140	4.1797	2.01154e-006
   141	4.17885	2.01153e-006
   142	4.161	2.01132e-006
   143	4.17162	2.01145e-006
   144	4.20089	2.01181e-006
   145	4.35872	2.01375e-006
   146	4.77265	2.01884e-006
   147	4.77809	2.01892e-006
   148	4.78104	2.01896e-006
   149	4.78299	2.01899e-006
   150	4.78401	2.01901e-006
   151	4.78499	2.01902e-006
   152	4.79228	2.01913e-006
   153	4.81156	2.01943e-006
   154	4.9084	2.02089e-006
   155	5.20548	2.0254e-006
   156	5.41988	2.02866e-006
   157	5.42176	2.02869e-006
   158	5.42447	2.02875e-006
   159	5.42929	2.02884e-006
   160	5.44211	2.02909e-006
   161	5.51189	2.03046e-006
   162	5.709	2.03432e-006
   163	5.91774	2.03841e-006
   164	5.92123	2.0385e-006
   165	5.9272	2.03866e-006
   166	5.9508	2.03927e-006
   167	6.04593	2.04172e-006
   168	6.29517	2.04813e-006
   169	6.30011	2.0483e-006
   170	6.31415	2.04878e-006
   171	6.37054	2.05069e-006
   172	6.53014	2.05609e-006
   173	6.59062	2.05822e-006
   174	6.62192	2.05961e-006
   175	6.71551	2.06378e-006
   176	6.81101	2.06815e-006
   177	6.85029	2.07044e-006
   178	6.96258	2.07702e-006
   179	6.99913	2.0797e-006
   180	7.08536	2.08634e-006
   181	7.13175	2.09077e-006
   182	7.20135	2.09807e-006
   183	7.26043	2.10593e-006
   184	3.68458	2.50636e-006
   185	3.67559	2.50628e-006
   186	3.69942	2.50651e-006
   187	3.82846	2.50779e-006
   188	3.92761	2.50878e-006
   189	3.933	2.50884e-006
   190	3.93901	2.5089e-006
   191	3.94914	2.50901e-006
   192	3.97157	2.50926e-006
   193	4.0395	2.51e-006
   194	4.16106	2.51133e-006
   195	4.32062	2.51308e-006
   196	4.4088	2.51406e-006
   197	4.40742	2.51407e-006
   198	4.38201	2.51382e-006
   199	4.08213	2.51051e-006
   200	3.96073	2.50916e-006
   201	4.01421	2.50976e-006
   202	4.27497	2.51271e-006
   203	4.39867	2.51412e-006
   204	4.4032	2.51418e-006
   205	4.40704	2.51423e-006
   206	4.41141	2.51429e-006
   207	4.41664	2.51436e-006
   208	4.42201	2.51444e-006
   209	4.42493	2.51448e-006
   210	4.4222	2.51444e-006
   211	4.41424	2.51434e-006
   212	4.42878	2.51454e-006
   213	4.47487	2.51518e-006
   214	4.70676	2.51838e-006
   215	5.16335	2.5247e-006
   216	5.16803	2.52478e-006
   217	5.17064	2.52483e-006
   218	5.17229	2.52486e-006
   219	5.1718	2.52485e-006
   220	5.17657	2.52494e-006
   221	5.18756	2.52514e-006
   222	5.22679	2.52585e-006
   223	5.40851	2.52914e-006
   224	5.82279	2.53663e-006
   225	5.82597	2.53671e-006
   226	5.82883	2.53678e-006
   227	5.83373	2.53691e-006
   228	5.84817	2.53727e-006
   229	5.92371	2.53917e-006
   230	6.12988	2.54434e-006
   231	6.31133	2.54891e-006
   232	6.31664	2.5491e-006
   233	6.33665	2.54981e-006
   234	6.40926	2.55237e-006
   235	6.6063	2.55932e-006
   236	6.66257	2.56142e-006
   237	6.69477	2.56302e-006
   238	6.78945	2.56773e-006
   239	6.90722	2.57373e-006
   240	6.94602	2.57645e-006
   241	7.05319	2.58396e-006
   242	7.10388	2.58836e-006
   243	7.1888	2.59675e-006
   244	7.23826	2.60327e-006
   245	3.73014	3.34014e-006
   246	3.8398	3.34121e-006
   247	3.84536	3.34127e-006
   248	3.85119	3.34133e-006
   249	3.86053	3.34143e-006
   250	3.87972	3.34163e-006
   251	3.92838	3.34214e-006
   252	4.01801	3.34309e-006
   253	4.10057	3.34397e-006
   254	4.13133	3.3443e-006
   255	4.0517	3.34347e-006
   256	3.89473	3.3418e-006
   257	3.87726	3.34162e-006
   258	3.95235	3.34243e-006
   259	4.2499	3.34566e-006
   260	4.25649	3.34574e-006
   261	4.26097	3.3458e-006
   262	4.26568	3.34585e-006
   263	4.27207	3.34593e-006
   264	4.28133	3.34605e-006
   265	4.29375	3.34621e-006
   266	4.30598	3.34637e-006
   267	4.30749	3.34639e-006
   268	4.29284	3.34621e-006
   269	4.27405	3.34597e-006
   270	4.29403	3.34623e-006
   271	4.37082	3.34723e-006
   272	4.69496	3.35143e-006
   273	4.94391	3.35468e-006
   274	4.94837	3.35475e-006
   275	4.95208	3.35481e-006
   276	4.95621	3.35488e-006
   277	4.96096	3.35496e-006
   278	4.96508	3.35503e-006
   279	4.96574	3.35504e-006
   280	4.9554	3.35487e-006
   281	4.96546	3.35504e-006
   282	4.99505	3.35554e-006
   283	5.15102	3.35817e-006
   284	5.55088	3.36491e-006
   285	5.63657	3.36638e-006
   286	5.63951	3.36645e-006
   287	5.64143	3.3665e-006
   288	5.64093	3.36649e-006
   289	5.64624	3.36662e-006
   290	5.66062	3.36696e-006
   291	5.73831	3.36881e-006
   292	5.9527	3.37392e-006
   293	6.25273	3.38108e-006
   294	6.25642	3.38121e-006
   295	6.26262	3.38144e-006
   296	6.28888	3.38237e-006
   297	6.38446	3.38578e-006
   298	6.62712	3.39443e-006
   299	6.71456	3.39768e-006
   300	6.74547	3.3994e-006
   301	6.83503	3.40439e-006
   302	7.00311	3.41383e-006
   303	7.03917	3.41701e-006
   304	7.13583	3.42554e-006
   305	7.21003	3.43339e-006


Date: Tue Mar 29 17:41:41 2022
Total elapsed time: 7.961 seconds.

tnom = 27
temp = 27
method = modified trap
totiter = 2228
traniter = 2206
tranpoints = 1090
accept = 1075
rejected = 15
matrix size = 11
fillins = 0
solver = Normal
Matrix Compiler1:      38 opcodes  0.1/[0.1]/0.1
Matrix Compiler2: off  [0.0]/0.1/0.1

